<routes>
    <vType id="car" accel="1.0" decel="4.5" length="5" maxSpeed="13.9" color="1,0,0"/>
    <vType id="bus" accel="0.8" decel="4.0" length="12" maxSpeed="11.1" color="0,0,1"/>

    <!-- Route 1 -->
    <route id="r1" edges="e1 e2 e3 e4"/>
    <route id="r2" edges="e2 e3 e4 e1"/>

    <!-- Vehicle flow -->
    <flow id="carFlow" type="car" route="r1" begin="0" end="800" vehsPerHour="600"/>
    <flow id="busFlow" type="bus" route="r2" begin="200" end="1000" vehsPerHour="100"/>
</routes>
